STAAD SPACE
START JOB INFORMATION
ENGINEER DATE 17-Jul-25
END JOB INFORMATION
INPUT WIDTH 79
UNIT METER KN
JOINT COORDINATES
1 0 0 0; 2 5 0 0; 3 9 0 0; 4 14 0 0; 5 18 0 0; 6 23 0 0; 7 0 0 5; 8 5 0 5;
9 9 0 5; 10 14 0 5; 11 18 0 5; 12 23 0 5; 13 0 0 9; 14 5 0 9; 15 9 0 9;
16 14 0 9; 17 18 0 9; 18 23 0 9; 19 0 0 14; 20 5 0 14; 21 9 0 14; 22 14 0 14;
23 18 0 14; 24 23 0 14; 25 0 0 18; 26 5 0 18; 27 9 0 18; 28 14 0 18;
29 18 0 18; 30 23 0 18; 31 0 0 23; 32 5 0 23; 33 9 0 23; 34 14 0 23;
35 18 0 23; 36 23 0 23; 37 0 3 0; 38 5 3 0; 39 9 3 0; 40 14 3 0; 41 18 3 0;
42 23 3 0; 43 0 3 5; 44 5 3 5; 45 9 3 5; 46 14 3 5; 47 18 3 5; 48 23 3 5;
49 0 3 9; 50 5 3 9; 51 9 3 9; 52 14 3 9; 53 18 3 9; 54 23 3 9; 55 0 3 14;
56 5 3 14; 57 9 3 14; 58 14 3 14; 59 18 3 14; 60 23 3 14; 61 0 3 18; 62 5 3 18;
63 9 3 18; 64 14 3 18; 65 18 3 18; 66 23 3 18; 67 0 3 23; 68 5 3 23; 69 9 3 23;
70 14 3 23; 71 18 3 23; 72 23 3 23; 73 0 6 0; 74 5 6 0; 75 9 6 0; 76 14 6 0;
77 18 6 0; 78 23 6 0; 79 0 6 5; 80 5 6 5; 81 9 6 5; 82 14 6 5; 83 18 6 5;
84 23 6 5; 85 0 6 9; 86 5 6 9; 87 9 6 9; 88 14 6 9; 89 18 6 9; 90 23 6 9;
91 0 6 14; 92 5 6 14; 93 9 6 14; 94 14 6 14; 95 18 6 14; 96 23 6 14; 97 0 6 18;
98 5 6 18; 99 9 6 18; 100 14 6 18; 101 18 6 18; 102 23 6 18; 103 0 6 23;
104 5 6 23; 105 9 6 23; 106 14 6 23; 107 18 6 23; 108 23 6 23; 109 0 9 0;
110 5 9 0; 111 9 9 0; 112 14 9 0; 113 18 9 0; 114 23 9 0; 115 0 9 5; 116 5 9 5;
117 9 9 5; 118 14 9 5; 119 18 9 5; 120 23 9 5; 121 0 9 9; 122 5 9 9; 123 9 9 9;
124 14 9 9; 125 18 9 9; 126 23 9 9; 127 0 9 14; 128 5 9 14; 129 9 9 14;
130 14 9 14; 131 18 9 14; 132 23 9 14; 133 0 9 18; 134 5 9 18; 135 9 9 18;
# ... 60 like lines cut
MEMBER INCIDENCES
1 1 37; 2 37 73; 3 73 109; 4 109 145; 5 145 181; 6 181 217; 7 217 253;
8 253 289; 9 289 325; 10 325 361; 11 361 397; 12 397 433; 13 2 38; 14 38 74;
15 74 110; 16 110 146; 17 146 182; 18 182 218; 19 218 254; 20 254 290;
21 290 326; 22 326 362; 23 362 398; 24 398 434; 25 3 39; 26 39 75; 27 75 111;
28 111 147; 29 147 183; 30 183 219; 31 219 255; 32 255 291; 33 291 327;
34 327 363; 35 363 399; 36 399 435; 37 4 40; 38 40 76; 39 76 112; 40 112 148;
41 148 184; 42 184 220; 43 220 256; 44 256 292; 45 292 328; 46 328 364;
47 364 400; 48 400 436; 49 5 41; 50 41 77; 51 77 113; 52 113 149; 53 149 185;
54 185 221; 55 221 257; 56 257 293; 57 293 329; 58 329 365; 59 365 401;
60 401 437; 61 6 42; 62 42 78; 63 78 114; 64 114 150; 65 150 186; 66 186 222;
67 222 258; 68 258 294; 69 294 330; 70 330 366; 71 366 402; 72 402 438;
73 7 43; 74 43 79; 75 79 115; 76 115 151; 77 151 187; 78 187 223; 79 223 259;
80 259 295; 81 295 331; 82 331 367; 83 367 403; 84 403 439; 85 8 44; 86 44 80;
87 80 116; 88 116 152; 89 152 188; 90 188 224; 91 224 260; 92 260 296;
93 296 332; 94 332 368; 95 368 404; 96 404 440; 97 9 45; 98 45 81; 99 81 117;
100 117 153; 101 153 189; 102 189 225; 103 225 261; 104 261 297; 105 297 333;
106 333 369; 107 369 405; 108 405 441; 109 10 46; 110 46 82; 111 82 118;
112 118 154; 113 154 190; 114 190 226; 115 226 262; 116 262 298; 117 298 334;
118 334 370; 119 370 406; 120 406 442; 121 11 47; 122 47 83; 123 83 119;
124 119 155; 125 155 191; 126 191 227; 127 227 263; 128 263 299; 129 299 335;
# ... 174 like lines cut
DEFINE MATERIAL START
ISOTROPIC CONCRETE
E 2.17185e+007
POISSON 0.17
DENSITY 23.5616
ALPHA 1e-005
DAMP 0.05
TYPE CONCRETE
STRENGTH FCU 27579
END DEFINE MATERIAL
MEMBER PROPERTY AMERICAN
433 TO 1152 PRIS YD 0.38 ZD 0.3
85 TO 132 157 TO 204 229 TO 276 301 TO 348 PRIS YD 0.53 ZD 0.53
1 TO 12 61 TO 72 361 TO 372 421 TO 432 PRIS YD 0.38 ZD 0.38
MEMBER PROPERTY AMERICAN
13 TO 60 73 TO 84 133 TO 156 205 TO 228 277 TO 300 349 TO 360 373 TO 419 -
420 PRIS YD 0.45 ZD 0.45
CONSTANTS
MATERIAL CONCRETE ALL
SUPPORTS
1 TO 36 FIXED
DEFINE WIND LOAD
TYPE 1 WIND 1
<! STAAD PRO GENERATED DATA DO NOT MODIFY !!!
ASCE-7-2010:PARAMS 44.000 MPH 0 1 2 0 0.000 FT 0.000 FT 0.000 FT 1 -
1 36.000 M 23.000 M 23.000 M 2.000 0.010 0 -
0 0 0 0 1.028 1.000 1.000 0.850 0 -
0 0 0 0.840 0.800 -0.550
!> END GENERATED DATA BLOCK
INT 0.192874 0.192874 0.199548 0.205115 0.209935 0.214211 0.218071 0.221599 -
 0.224858 0.227891 0.230733 0.233411 0.235946 0.238354 0.24065 0.242846 -
 0.244952 0.246975 0.248924 0.250804 0.252622 0.254381 HEIG  0  4.572  6.096 -
 7.62  9.144  10.668  12.192  13.716  15.24  16.764  18.288  19.812  21.336 -
 22.86  24.384  25.908  27.432  28.956  30.48  32.004  33.528  35.052
EXP 1 JOINT 1 TO 468
DEFINE 1893 LOAD
ZONE 0.16 RF 5 I 1.5 SS 1 DM 0.05
SELFWEIGHT 1 
MEMBER WEIGHT
763 TO 792 1123 TO 1152 UNI 5.52
433 TO 762 793 TO 1122 UNI 12.052
FLOOR WEIGHT
YRANGE 6 36 FLOAD 3.125
YRANGE 6 36 FLOAD 1.5
LOAD 1 LOADTYPE Seismic  TITLE EX
1893 LOAD X 1
LOAD 2 LOADTYPE Seismic  TITLE EZ
1893 LOAD Z 1
LOAD 3 LOADTYPE Wind  TITLE WX
WIND LOAD X 1 TYPE 1
WIND LOAD -X 1 TYPE 1
LOAD 4 LOADTYPE Wind  TITLE WZ
WIND LOAD Z 1 TYPE 1
WIND LOAD -Z 1 TYPE 1
LOAD 5 LOADTYPE Dead  TITLE DL
SELFWEIGHT Y -1 
MEMBER LOAD
763 TO 767 788 TO 792 1123 TO 1127 1148 TO 1152 UNI GY -5.52
MEMBER LOAD
433 TO 762 793 TO 1122 UNI GY -12.052
LOAD 6 LOADTYPE Live  TITLE LL
FLOOR LOAD
YRANGE 6 36 FLOAD -3 GY
LOAD 17 LOADTYPE Dead  TITLE DL - FLOOR LOAD
FLOOR LOAD
YRANGE 6 36 FLOAD -3.125 GY
YRANGE 6 36 FLOAD -1.5 GY
LOAD COMB 7 DL
5 1.5 
LOAD COMB 8 DL+LL
5 1.5 6 1.5 
LOAD COMB 9 DL+EX
5 1.5 1 1.5 
LOAD COMB 10 DL+EZ
5 1.5 2 1.5 
LOAD COMB 11 DL+LL+EX
5 1.2 6 1.2 1 1.2 
LOAD COMB 12 DL+LL+EZ
5 1.2 6 1.2 2 1.2 
LOAD COMB 13 DL+WX
5 1.5 3 1.5 
LOAD COMB 14 DL+WZ
5 1.5 4 1.5 
LOAD COMB 15 DL+LL+WX
5 1.2 6 1.2 3 1.2 
LOAD COMB 16 DL+LL+WZ
5 1.2 6 1.2 4 1.2 
PERFORM ANALYSIS PRINT ALL
START CONCRETE DESIGN
CODE INDIAN
FC 25000 ALL
FYMAIN 500000 ALL
FYSEC 500000 ALL
MAXMAIN 25 ALL
MAXSEC 12 ALL
MINMAIN 10 ALL
MINSEC 8 ALL
DESIGN BEAM 433 TO 1152
DESIGN COLUMN 1 TO 432
CONCRETE TAKE
END CONCRETE DESIGN
PRINT STORY DRIFT 1.000000
PERFORM ANALYSIS
PRINT CG
PERFORM ANALYSIS PRINT ALL
FINISH
